512
Ar     1.000     1.000     1.000
Ar     1.000     1.000     5.423
Ar     1.000     1.000     9.846
Ar     1.000     1.000    14.269
Ar     1.000     1.000    18.691
Ar     1.000     1.000    23.114
Ar     1.000     1.000    27.537
Ar     1.000     1.000    31.960
Ar     1.000     5.423     1.000
Ar     1.000     5.423     5.423
Ar     1.000     5.423     9.846
Ar     1.000     5.423    14.269
Ar     1.000     5.423    18.691
Ar     1.000     5.423    23.114
Ar     1.000     5.423    27.537
Ar     1.000     5.423    31.960
Ar     1.000     9.846     1.000
Ar     1.000     9.846     5.423
Ar     1.000     9.846     9.846
Ar     1.000     9.846    14.269
Ar     1.000     9.846    18.691
Ar     1.000     9.846    23.114
Ar     1.000     9.846    27.537
Ar     1.000     9.846    31.960
Ar     1.000    14.269     1.000
Ar     1.000    14.269     5.423
Ar     1.000    14.269     9.846
Ar     1.000    14.269    14.269
Ar     1.000    14.269    18.691
Ar     1.000    14.269    23.114
Ar     1.000    14.269    27.537
Ar     1.000    14.269    31.960
Ar     1.000    18.691     1.000
Ar     1.000    18.691     5.423
Ar     1.000    18.691     9.846
Ar     1.000    18.691    14.269
Ar     1.000    18.691    18.691
Ar     1.000    18.691    23.114
Ar     1.000    18.691    27.537
Ar     1.000    18.691    31.960
Ar     1.000    23.114     1.000
Ar     1.000    23.114     5.423
Ar     1.000    23.114     9.846
Ar     1.000    23.114    14.269
Ar     1.000    23.114    18.691
Ar     1.000    23.114    23.114
Ar     1.000    23.114    27.537
Ar     1.000    23.114    31.960
Ar     1.000    27.537     1.000
Ar     1.000    27.537     5.423
Ar     1.000    27.537     9.846
Ar     1.000    27.537    14.269
Ar     1.000    27.537    18.691
Ar     1.000    27.537    23.114
Ar     1.000    27.537    27.537
Ar     1.000    27.537    31.960
Ar     1.000    31.960     1.000
Ar     1.000    31.960     5.423
Ar     1.000    31.960     9.846
Ar     1.000    31.960    14.269
Ar     1.000    31.960    18.691
Ar     1.000    31.960    23.114
Ar     1.000    31.960    27.537
Ar     1.000    31.960    31.960
Ar     5.423     1.000     1.000
Ar     5.423     1.000     5.423
Ar     5.423     1.000     9.846
Ar     5.423     1.000    14.269
Ar     5.423     1.000    18.691
Ar     5.423     1.000    23.114
Ar     5.423     1.000    27.537
Ar     5.423     1.000    31.960
Ar     5.423     5.423     1.000
Ar     5.423     5.423     5.423
Ar     5.423     5.423     9.846
Ar     5.423     5.423    14.269
Ar     5.423     5.423    18.691
Ar     5.423     5.423    23.114
Ar     5.423     5.423    27.537
Ar     5.423     5.423    31.960
Ar     5.423     9.846     1.000
Ar     5.423     9.846     5.423
Ar     5.423     9.846     9.846
Ar     5.423     9.846    14.269
Ar     5.423     9.846    18.691
Ar     5.423     9.846    23.114
Ar     5.423     9.846    27.537
Ar     5.423     9.846    31.960
Ar     5.423    14.269     1.000
Ar     5.423    14.269     5.423
Ar     5.423    14.269     9.846
Ar     5.423    14.269    14.269
Ar     5.423    14.269    18.691
Ar     5.423    14.269    23.114
Ar     5.423    14.269    27.537
Ar     5.423    14.269    31.960
Ar     5.423    18.691     1.000
Ar     5.423    18.691     5.423
Ar     5.423    18.691     9.846
Ar     5.423    18.691    14.269
Ar     5.423    18.691    18.691
Ar     5.423    18.691    23.114
Ar     5.423    18.691    27.537
Ar     5.423    18.691    31.960
Ar     5.423    23.114     1.000
Ar     5.423    23.114     5.423
Ar     5.423    23.114     9.846
Ar     5.423    23.114    14.269
Ar     5.423    23.114    18.691
Ar     5.423    23.114    23.114
Ar     5.423    23.114    27.537
Ar     5.423    23.114    31.960
Ar     5.423    27.537     1.000
Ar     5.423    27.537     5.423
Ar     5.423    27.537     9.846
Ar     5.423    27.537    14.269
Ar     5.423    27.537    18.691
Ar     5.423    27.537    23.114
Ar     5.423    27.537    27.537
Ar     5.423    27.537    31.960
Ar     5.423    31.960     1.000
Ar     5.423    31.960     5.423
Ar     5.423    31.960     9.846
Ar     5.423    31.960    14.269
Ar     5.423    31.960    18.691
Ar     5.423    31.960    23.114
Ar     5.423    31.960    27.537
Ar     5.423    31.960    31.960
Ar     9.846     1.000     1.000
Ar     9.846     1.000     5.423
Ar     9.846     1.000     9.846
Ar     9.846     1.000    14.269
Ar     9.846     1.000    18.691
Ar     9.846     1.000    23.114
Ar     9.846     1.000    27.537
Ar     9.846     1.000    31.960
Ar     9.846     5.423     1.000
Ar     9.846     5.423     5.423
Ar     9.846     5.423     9.846
Ar     9.846     5.423    14.269
Ar     9.846     5.423    18.691
Ar     9.846     5.423    23.114
Ar     9.846     5.423    27.537
Ar     9.846     5.423    31.960
Ar     9.846     9.846     1.000
Ar     9.846     9.846     5.423
Ar     9.846     9.846     9.846
Ar     9.846     9.846    14.269
Ar     9.846     9.846    18.691
Ar     9.846     9.846    23.114
Ar     9.846     9.846    27.537
Ar     9.846     9.846    31.960
Ar     9.846    14.269     1.000
Ar     9.846    14.269     5.423
Ar     9.846    14.269     9.846
Ar     9.846    14.269    14.269
Ar     9.846    14.269    18.691
Ar     9.846    14.269    23.114
Ar     9.846    14.269    27.537
Ar     9.846    14.269    31.960
Ar     9.846    18.691     1.000
Ar     9.846    18.691     5.423
Ar     9.846    18.691     9.846
Ar     9.846    18.691    14.269
Ar     9.846    18.691    18.691
Ar     9.846    18.691    23.114
Ar     9.846    18.691    27.537
Ar     9.846    18.691    31.960
Ar     9.846    23.114     1.000
Ar     9.846    23.114     5.423
Ar     9.846    23.114     9.846
Ar     9.846    23.114    14.269
Ar     9.846    23.114    18.691
Ar     9.846    23.114    23.114
Ar     9.846    23.114    27.537
Ar     9.846    23.114    31.960
Ar     9.846    27.537     1.000
Ar     9.846    27.537     5.423
Ar     9.846    27.537     9.846
Ar     9.846    27.537    14.269
Ar     9.846    27.537    18.691
Ar     9.846    27.537    23.114
Ar     9.846    27.537    27.537
Ar     9.846    27.537    31.960
Ar     9.846    31.960     1.000
Ar     9.846    31.960     5.423
Ar     9.846    31.960     9.846
Ar     9.846    31.960    14.269
Ar     9.846    31.960    18.691
Ar     9.846    31.960    23.114
Ar     9.846    31.960    27.537
Ar     9.846    31.960    31.960
Ar    14.269     1.000     1.000
Ar    14.269     1.000     5.423
Ar    14.269     1.000     9.846
Ar    14.269     1.000    14.269
Ar    14.269     1.000    18.691
Ar    14.269     1.000    23.114
Ar    14.269     1.000    27.537
Ar    14.269     1.000    31.960
Ar    14.269     5.423     1.000
Ar    14.269     5.423     5.423
Ar    14.269     5.423     9.846
Ar    14.269     5.423    14.269
Ar    14.269     5.423    18.691
Ar    14.269     5.423    23.114
Ar    14.269     5.423    27.537
Ar    14.269     5.423    31.960
Ar    14.269     9.846     1.000
Ar    14.269     9.846     5.423
Ar    14.269     9.846     9.846
Ar    14.269     9.846    14.269
Ar    14.269     9.846    18.691
Ar    14.269     9.846    23.114
Ar    14.269     9.846    27.537
Ar    14.269     9.846    31.960
Ar    14.269    14.269     1.000
Ar    14.269    14.269     5.423
Ar    14.269    14.269     9.846
Ar    14.269    14.269    14.269
Ar    14.269    14.269    18.691
Ar    14.269    14.269    23.114
Ar    14.269    14.269    27.537
Ar    14.269    14.269    31.960
Ar    14.269    18.691     1.000
Ar    14.269    18.691     5.423
Ar    14.269    18.691     9.846
Ar    14.269    18.691    14.269
Ar    14.269    18.691    18.691
Ar    14.269    18.691    23.114
Ar    14.269    18.691    27.537
Ar    14.269    18.691    31.960
Ar    14.269    23.114     1.000
Ar    14.269    23.114     5.423
Ar    14.269    23.114     9.846
Ar    14.269    23.114    14.269
Ar    14.269    23.114    18.691
Ar    14.269    23.114    23.114
Ar    14.269    23.114    27.537
Ar    14.269    23.114    31.960
Ar    14.269    27.537     1.000
Ar    14.269    27.537     5.423
Ar    14.269    27.537     9.846
Ar    14.269    27.537    14.269
Ar    14.269    27.537    18.691
Ar    14.269    27.537    23.114
Ar    14.269    27.537    27.537
Ar    14.269    27.537    31.960
Ar    14.269    31.960     1.000
Ar    14.269    31.960     5.423
Ar    14.269    31.960     9.846
Ar    14.269    31.960    14.269
Ar    14.269    31.960    18.691
Ar    14.269    31.960    23.114
Ar    14.269    31.960    27.537
Ar    14.269    31.960    31.960
Ar    18.691     1.000     1.000
Ar    18.691     1.000     5.423
Ar    18.691     1.000     9.846
Ar    18.691     1.000    14.269
Ar    18.691     1.000    18.691
Ar    18.691     1.000    23.114
Ar    18.691     1.000    27.537
Ar    18.691     1.000    31.960
Ar    18.691     5.423     1.000
Ar    18.691     5.423     5.423
Ar    18.691     5.423     9.846
Ar    18.691     5.423    14.269
Ar    18.691     5.423    18.691
Ar    18.691     5.423    23.114
Ar    18.691     5.423    27.537
Ar    18.691     5.423    31.960
Ar    18.691     9.846     1.000
Ar    18.691     9.846     5.423
Ar    18.691     9.846     9.846
Ar    18.691     9.846    14.269
Ar    18.691     9.846    18.691
Ar    18.691     9.846    23.114
Ar    18.691     9.846    27.537
Ar    18.691     9.846    31.960
Ar    18.691    14.269     1.000
Ar    18.691    14.269     5.423
Ar    18.691    14.269     9.846
Ar    18.691    14.269    14.269
Ar    18.691    14.269    18.691
Ar    18.691    14.269    23.114
Ar    18.691    14.269    27.537
Ar    18.691    14.269    31.960
Ar    18.691    18.691     1.000
Ar    18.691    18.691     5.423
Ar    18.691    18.691     9.846
Ar    18.691    18.691    14.269
Ar    18.691    18.691    18.691
Ar    18.691    18.691    23.114
Ar    18.691    18.691    27.537
Ar    18.691    18.691    31.960
Ar    18.691    23.114     1.000
Ar    18.691    23.114     5.423
Ar    18.691    23.114     9.846
Ar    18.691    23.114    14.269
Ar    18.691    23.114    18.691
Ar    18.691    23.114    23.114
Ar    18.691    23.114    27.537
Ar    18.691    23.114    31.960
Ar    18.691    27.537     1.000
Ar    18.691    27.537     5.423
Ar    18.691    27.537     9.846
Ar    18.691    27.537    14.269
Ar    18.691    27.537    18.691
Ar    18.691    27.537    23.114
Ar    18.691    27.537    27.537
Ar    18.691    27.537    31.960
Ar    18.691    31.960     1.000
Ar    18.691    31.960     5.423
Ar    18.691    31.960     9.846
Ar    18.691    31.960    14.269
Ar    18.691    31.960    18.691
Ar    18.691    31.960    23.114
Ar    18.691    31.960    27.537
Ar    18.691    31.960    31.960
Ar    23.114     1.000     1.000
Ar    23.114     1.000     5.423
Ar    23.114     1.000     9.846
Ar    23.114     1.000    14.269
Ar    23.114     1.000    18.691
Ar    23.114     1.000    23.114
Ar    23.114     1.000    27.537
Ar    23.114     1.000    31.960
Ar    23.114     5.423     1.000
Ar    23.114     5.423     5.423
Ar    23.114     5.423     9.846
Ar    23.114     5.423    14.269
Ar    23.114     5.423    18.691
Ar    23.114     5.423    23.114
Ar    23.114     5.423    27.537
Ar    23.114     5.423    31.960
Ar    23.114     9.846     1.000
Ar    23.114     9.846     5.423
Ar    23.114     9.846     9.846
Ar    23.114     9.846    14.269
Ar    23.114     9.846    18.691
Ar    23.114     9.846    23.114
Ar    23.114     9.846    27.537
Ar    23.114     9.846    31.960
Ar    23.114    14.269     1.000
Ar    23.114    14.269     5.423
Ar    23.114    14.269     9.846
Ar    23.114    14.269    14.269
Ar    23.114    14.269    18.691
Ar    23.114    14.269    23.114
Ar    23.114    14.269    27.537
Ar    23.114    14.269    31.960
Ar    23.114    18.691     1.000
Ar    23.114    18.691     5.423
Ar    23.114    18.691     9.846
Ar    23.114    18.691    14.269
Ar    23.114    18.691    18.691
Ar    23.114    18.691    23.114
Ar    23.114    18.691    27.537
Ar    23.114    18.691    31.960
Ar    23.114    23.114     1.000
Ar    23.114    23.114     5.423
Ar    23.114    23.114     9.846
Ar    23.114    23.114    14.269
Ar    23.114    23.114    18.691
Ar    23.114    23.114    23.114
Ar    23.114    23.114    27.537
Ar    23.114    23.114    31.960
Ar    23.114    27.537     1.000
Ar    23.114    27.537     5.423
Ar    23.114    27.537     9.846
Ar    23.114    27.537    14.269
Ar    23.114    27.537    18.691
Ar    23.114    27.537    23.114
Ar    23.114    27.537    27.537
Ar    23.114    27.537    31.960
Ar    23.114    31.960     1.000
Ar    23.114    31.960     5.423
Ar    23.114    31.960     9.846
Ar    23.114    31.960    14.269
Ar    23.114    31.960    18.691
Ar    23.114    31.960    23.114
Ar    23.114    31.960    27.537
Ar    23.114    31.960    31.960
Ar    27.537     1.000     1.000
Ar    27.537     1.000     5.423
Ar    27.537     1.000     9.846
Ar    27.537     1.000    14.269
Ar    27.537     1.000    18.691
Ar    27.537     1.000    23.114
Ar    27.537     1.000    27.537
Ar    27.537     1.000    31.960
Ar    27.537     5.423     1.000
Ar    27.537     5.423     5.423
Ar    27.537     5.423     9.846
Ar    27.537     5.423    14.269
Ar    27.537     5.423    18.691
Ar    27.537     5.423    23.114
Ar    27.537     5.423    27.537
Ar    27.537     5.423    31.960
Ar    27.537     9.846     1.000
Ar    27.537     9.846     5.423
Ar    27.537     9.846     9.846
Ar    27.537     9.846    14.269
Ar    27.537     9.846    18.691
Ar    27.537     9.846    23.114
Ar    27.537     9.846    27.537
Ar    27.537     9.846    31.960
Ar    27.537    14.269     1.000
Ar    27.537    14.269     5.423
Ar    27.537    14.269     9.846
Ar    27.537    14.269    14.269
Ar    27.537    14.269    18.691
Ar    27.537    14.269    23.114
Ar    27.537    14.269    27.537
Ar    27.537    14.269    31.960
Ar    27.537    18.691     1.000
Ar    27.537    18.691     5.423
Ar    27.537    18.691     9.846
Ar    27.537    18.691    14.269
Ar    27.537    18.691    18.691
Ar    27.537    18.691    23.114
Ar    27.537    18.691    27.537
Ar    27.537    18.691    31.960
Ar    27.537    23.114     1.000
Ar    27.537    23.114     5.423
Ar    27.537    23.114     9.846
Ar    27.537    23.114    14.269
Ar    27.537    23.114    18.691
Ar    27.537    23.114    23.114
Ar    27.537    23.114    27.537
Ar    27.537    23.114    31.960
Ar    27.537    27.537     1.000
Ar    27.537    27.537     5.423
Ar    27.537    27.537     9.846
Ar    27.537    27.537    14.269
Ar    27.537    27.537    18.691
Ar    27.537    27.537    23.114
Ar    27.537    27.537    27.537
Ar    27.537    27.537    31.960
Ar    27.537    31.960     1.000
Ar    27.537    31.960     5.423
Ar    27.537    31.960     9.846
Ar    27.537    31.960    14.269
Ar    27.537    31.960    18.691
Ar    27.537    31.960    23.114
Ar    27.537    31.960    27.537
Ar    27.537    31.960    31.960
Ar    31.960     1.000     1.000
Ar    31.960     1.000     5.423
Ar    31.960     1.000     9.846
Ar    31.960     1.000    14.269
Ar    31.960     1.000    18.691
Ar    31.960     1.000    23.114
Ar    31.960     1.000    27.537
Ar    31.960     1.000    31.960
Ar    31.960     5.423     1.000
Ar    31.960     5.423     5.423
Ar    31.960     5.423     9.846
Ar    31.960     5.423    14.269
Ar    31.960     5.423    18.691
Ar    31.960     5.423    23.114
Ar    31.960     5.423    27.537
Ar    31.960     5.423    31.960
Ar    31.960     9.846     1.000
Ar    31.960     9.846     5.423
Ar    31.960     9.846     9.846
Ar    31.960     9.846    14.269
Ar    31.960     9.846    18.691
Ar    31.960     9.846    23.114
Ar    31.960     9.846    27.537
Ar    31.960     9.846    31.960
Ar    31.960    14.269     1.000
Ar    31.960    14.269     5.423
Ar    31.960    14.269     9.846
Ar    31.960    14.269    14.269
Ar    31.960    14.269    18.691
Ar    31.960    14.269    23.114
Ar    31.960    14.269    27.537
Ar    31.960    14.269    31.960
Ar    31.960    18.691     1.000
Ar    31.960    18.691     5.423
Ar    31.960    18.691     9.846
Ar    31.960    18.691    14.269
Ar    31.960    18.691    18.691
Ar    31.960    18.691    23.114
Ar    31.960    18.691    27.537
Ar    31.960    18.691    31.960
Ar    31.960    23.114     1.000
Ar    31.960    23.114     5.423
Ar    31.960    23.114     9.846
Ar    31.960    23.114    14.269
Ar    31.960    23.114    18.691
Ar    31.960    23.114    23.114
Ar    31.960    23.114    27.537
Ar    31.960    23.114    31.960
Ar    31.960    27.537     1.000
Ar    31.960    27.537     5.423
Ar    31.960    27.537     9.846
Ar    31.960    27.537    14.269
Ar    31.960    27.537    18.691
Ar    31.960    27.537    23.114
Ar    31.960    27.537    27.537
Ar    31.960    27.537    31.960
Ar    31.960    31.960     1.000
Ar    31.960    31.960     5.423
Ar    31.960    31.960     9.846
Ar    31.960    31.960    14.269
Ar    31.960    31.960    18.691
Ar    31.960    31.960    23.114
Ar    31.960    31.960    27.537
Ar    31.960    31.960    31.960
