512
Ar    0.0000000000    0.0000000000    0.0000000000
Ar    0.0000000000    0.0000000000    4.5657142857
Ar    0.0000000000    0.0000000000    9.1314285714
Ar    0.0000000000    0.0000000000   13.6971428571
Ar    0.0000000000    0.0000000000   18.2628571429
Ar    0.0000000000    0.0000000000   22.8285714286
Ar    0.0000000000    0.0000000000   27.3942857143
Ar    0.0000000000    0.0000000000   31.9600000000
Ar    0.0000000000    4.5657142857    0.0000000000
Ar    0.0000000000    4.5657142857    4.5657142857
Ar    0.0000000000    4.5657142857    9.1314285714
Ar    0.0000000000    4.5657142857   13.6971428571
Ar    0.0000000000    4.5657142857   18.2628571429
Ar    0.0000000000    4.5657142857   22.8285714286
Ar    0.0000000000    4.5657142857   27.3942857143
Ar    0.0000000000    4.5657142857   31.9600000000
Ar    0.0000000000    9.1314285714    0.0000000000
Ar    0.0000000000    9.1314285714    4.5657142857
Ar    0.0000000000    9.1314285714    9.1314285714
Ar    0.0000000000    9.1314285714   13.6971428571
Ar    0.0000000000    9.1314285714   18.2628571429
Ar    0.0000000000    9.1314285714   22.8285714286
Ar    0.0000000000    9.1314285714   27.3942857143
Ar    0.0000000000    9.1314285714   31.9600000000
Ar    0.0000000000   13.6971428571    0.0000000000
Ar    0.0000000000   13.6971428571    4.5657142857
Ar    0.0000000000   13.6971428571    9.1314285714
Ar    0.0000000000   13.6971428571   13.6971428571
Ar    0.0000000000   13.6971428571   18.2628571429
Ar    0.0000000000   13.6971428571   22.8285714286
Ar    0.0000000000   13.6971428571   27.3942857143
Ar    0.0000000000   13.6971428571   31.9600000000
Ar    0.0000000000   18.2628571429    0.0000000000
Ar    0.0000000000   18.2628571429    4.5657142857
Ar    0.0000000000   18.2628571429    9.1314285714
Ar    0.0000000000   18.2628571429   13.6971428571
Ar    0.0000000000   18.2628571429   18.2628571429
Ar    0.0000000000   18.2628571429   22.8285714286
Ar    0.0000000000   18.2628571429   27.3942857143
Ar    0.0000000000   18.2628571429   31.9600000000
Ar    0.0000000000   22.8285714286    0.0000000000
Ar    0.0000000000   22.8285714286    4.5657142857
Ar    0.0000000000   22.8285714286    9.1314285714
Ar    0.0000000000   22.8285714286   13.6971428571
Ar    0.0000000000   22.8285714286   18.2628571429
Ar    0.0000000000   22.8285714286   22.8285714286
Ar    0.0000000000   22.8285714286   27.3942857143
Ar    0.0000000000   22.8285714286   31.9600000000
Ar    0.0000000000   27.3942857143    0.0000000000
Ar    0.0000000000   27.3942857143    4.5657142857
Ar    0.0000000000   27.3942857143    9.1314285714
Ar    0.0000000000   27.3942857143   13.6971428571
Ar    0.0000000000   27.3942857143   18.2628571429
Ar    0.0000000000   27.3942857143   22.8285714286
Ar    0.0000000000   27.3942857143   27.3942857143
Ar    0.0000000000   27.3942857143   31.9600000000
Ar    0.0000000000   31.9600000000    0.0000000000
Ar    0.0000000000   31.9600000000    4.5657142857
Ar    0.0000000000   31.9600000000    9.1314285714
Ar    0.0000000000   31.9600000000   13.6971428571
Ar    0.0000000000   31.9600000000   18.2628571429
Ar    0.0000000000   31.9600000000   22.8285714286
Ar    0.0000000000   31.9600000000   27.3942857143
Ar    0.0000000000   31.9600000000   31.9600000000
Ar    4.5657142857    0.0000000000    0.0000000000
Ar    4.5657142857    0.0000000000    4.5657142857
Ar    4.5657142857    0.0000000000    9.1314285714
Ar    4.5657142857    0.0000000000   13.6971428571
Ar    4.5657142857    0.0000000000   18.2628571429
Ar    4.5657142857    0.0000000000   22.8285714286
Ar    4.5657142857    0.0000000000   27.3942857143
Ar    4.5657142857    0.0000000000   31.9600000000
Ar    4.5657142857    4.5657142857    0.0000000000
Ar    4.5657142857    4.5657142857    4.5657142857
Ar    4.5657142857    4.5657142857    9.1314285714
Ar    4.5657142857    4.5657142857   13.6971428571
Ar    4.5657142857    4.5657142857   18.2628571429
Ar    4.5657142857    4.5657142857   22.8285714286
Ar    4.5657142857    4.5657142857   27.3942857143
Ar    4.5657142857    4.5657142857   31.9600000000
Ar    4.5657142857    9.1314285714    0.0000000000
Ar    4.5657142857    9.1314285714    4.5657142857
Ar    4.5657142857    9.1314285714    9.1314285714
Ar    4.5657142857    9.1314285714   13.6971428571
Ar    4.5657142857    9.1314285714   18.2628571429
Ar    4.5657142857    9.1314285714   22.8285714286
Ar    4.5657142857    9.1314285714   27.3942857143
Ar    4.5657142857    9.1314285714   31.9600000000
Ar    4.5657142857   13.6971428571    0.0000000000
Ar    4.5657142857   13.6971428571    4.5657142857
Ar    4.5657142857   13.6971428571    9.1314285714
Ar    4.5657142857   13.6971428571   13.6971428571
Ar    4.5657142857   13.6971428571   18.2628571429
Ar    4.5657142857   13.6971428571   22.8285714286
Ar    4.5657142857   13.6971428571   27.3942857143
Ar    4.5657142857   13.6971428571   31.9600000000
Ar    4.5657142857   18.2628571429    0.0000000000
Ar    4.5657142857   18.2628571429    4.5657142857
Ar    4.5657142857   18.2628571429    9.1314285714
Ar    4.5657142857   18.2628571429   13.6971428571
Ar    4.5657142857   18.2628571429   18.2628571429
Ar    4.5657142857   18.2628571429   22.8285714286
Ar    4.5657142857   18.2628571429   27.3942857143
Ar    4.5657142857   18.2628571429   31.9600000000
Ar    4.5657142857   22.8285714286    0.0000000000
Ar    4.5657142857   22.8285714286    4.5657142857
Ar    4.5657142857   22.8285714286    9.1314285714
Ar    4.5657142857   22.8285714286   13.6971428571
Ar    4.5657142857   22.8285714286   18.2628571429
Ar    4.5657142857   22.8285714286   22.8285714286
Ar    4.5657142857   22.8285714286   27.3942857143
Ar    4.5657142857   22.8285714286   31.9600000000
Ar    4.5657142857   27.3942857143    0.0000000000
Ar    4.5657142857   27.3942857143    4.5657142857
Ar    4.5657142857   27.3942857143    9.1314285714
Ar    4.5657142857   27.3942857143   13.6971428571
Ar    4.5657142857   27.3942857143   18.2628571429
Ar    4.5657142857   27.3942857143   22.8285714286
Ar    4.5657142857   27.3942857143   27.3942857143
Ar    4.5657142857   27.3942857143   31.9600000000
Ar    4.5657142857   31.9600000000    0.0000000000
Ar    4.5657142857   31.9600000000    4.5657142857
Ar    4.5657142857   31.9600000000    9.1314285714
Ar    4.5657142857   31.9600000000   13.6971428571
Ar    4.5657142857   31.9600000000   18.2628571429
Ar    4.5657142857   31.9600000000   22.8285714286
Ar    4.5657142857   31.9600000000   27.3942857143
Ar    4.5657142857   31.9600000000   31.9600000000
Ar    9.1314285714    0.0000000000    0.0000000000
Ar    9.1314285714    0.0000000000    4.5657142857
Ar    9.1314285714    0.0000000000    9.1314285714
Ar    9.1314285714    0.0000000000   13.6971428571
Ar    9.1314285714    0.0000000000   18.2628571429
Ar    9.1314285714    0.0000000000   22.8285714286
Ar    9.1314285714    0.0000000000   27.3942857143
Ar    9.1314285714    0.0000000000   31.9600000000
Ar    9.1314285714    4.5657142857    0.0000000000
Ar    9.1314285714    4.5657142857    4.5657142857
Ar    9.1314285714    4.5657142857    9.1314285714
Ar    9.1314285714    4.5657142857   13.6971428571
Ar    9.1314285714    4.5657142857   18.2628571429
Ar    9.1314285714    4.5657142857   22.8285714286
Ar    9.1314285714    4.5657142857   27.3942857143
Ar    9.1314285714    4.5657142857   31.9600000000
Ar    9.1314285714    9.1314285714    0.0000000000
Ar    9.1314285714    9.1314285714    4.5657142857
Ar    9.1314285714    9.1314285714    9.1314285714
Ar    9.1314285714    9.1314285714   13.6971428571
Ar    9.1314285714    9.1314285714   18.2628571429
Ar    9.1314285714    9.1314285714   22.8285714286
Ar    9.1314285714    9.1314285714   27.3942857143
Ar    9.1314285714    9.1314285714   31.9600000000
Ar    9.1314285714   13.6971428571    0.0000000000
Ar    9.1314285714   13.6971428571    4.5657142857
Ar    9.1314285714   13.6971428571    9.1314285714
Ar    9.1314285714   13.6971428571   13.6971428571
Ar    9.1314285714   13.6971428571   18.2628571429
Ar    9.1314285714   13.6971428571   22.8285714286
Ar    9.1314285714   13.6971428571   27.3942857143
Ar    9.1314285714   13.6971428571   31.9600000000
Ar    9.1314285714   18.2628571429    0.0000000000
Ar    9.1314285714   18.2628571429    4.5657142857
Ar    9.1314285714   18.2628571429    9.1314285714
Ar    9.1314285714   18.2628571429   13.6971428571
Ar    9.1314285714   18.2628571429   18.2628571429
Ar    9.1314285714   18.2628571429   22.8285714286
Ar    9.1314285714   18.2628571429   27.3942857143
Ar    9.1314285714   18.2628571429   31.9600000000
Ar    9.1314285714   22.8285714286    0.0000000000
Ar    9.1314285714   22.8285714286    4.5657142857
Ar    9.1314285714   22.8285714286    9.1314285714
Ar    9.1314285714   22.8285714286   13.6971428571
Ar    9.1314285714   22.8285714286   18.2628571429
Ar    9.1314285714   22.8285714286   22.8285714286
Ar    9.1314285714   22.8285714286   27.3942857143
Ar    9.1314285714   22.8285714286   31.9600000000
Ar    9.1314285714   27.3942857143    0.0000000000
Ar    9.1314285714   27.3942857143    4.5657142857
Ar    9.1314285714   27.3942857143    9.1314285714
Ar    9.1314285714   27.3942857143   13.6971428571
Ar    9.1314285714   27.3942857143   18.2628571429
Ar    9.1314285714   27.3942857143   22.8285714286
Ar    9.1314285714   27.3942857143   27.3942857143
Ar    9.1314285714   27.3942857143   31.9600000000
Ar    9.1314285714   31.9600000000    0.0000000000
Ar    9.1314285714   31.9600000000    4.5657142857
Ar    9.1314285714   31.9600000000    9.1314285714
Ar    9.1314285714   31.9600000000   13.6971428571
Ar    9.1314285714   31.9600000000   18.2628571429
Ar    9.1314285714   31.9600000000   22.8285714286
Ar    9.1314285714   31.9600000000   27.3942857143
Ar    9.1314285714   31.9600000000   31.9600000000
Ar   13.6971428571    0.0000000000    0.0000000000
Ar   13.6971428571    0.0000000000    4.5657142857
Ar   13.6971428571    0.0000000000    9.1314285714
Ar   13.6971428571    0.0000000000   13.6971428571
Ar   13.6971428571    0.0000000000   18.2628571429
Ar   13.6971428571    0.0000000000   22.8285714286
Ar   13.6971428571    0.0000000000   27.3942857143
Ar   13.6971428571    0.0000000000   31.9600000000
Ar   13.6971428571    4.5657142857    0.0000000000
Ar   13.6971428571    4.5657142857    4.5657142857
Ar   13.6971428571    4.5657142857    9.1314285714
Ar   13.6971428571    4.5657142857   13.6971428571
Ar   13.6971428571    4.5657142857   18.2628571429
Ar   13.6971428571    4.5657142857   22.8285714286
Ar   13.6971428571    4.5657142857   27.3942857143
Ar   13.6971428571    4.5657142857   31.9600000000
Ar   13.6971428571    9.1314285714    0.0000000000
Ar   13.6971428571    9.1314285714    4.5657142857
Ar   13.6971428571    9.1314285714    9.1314285714
Ar   13.6971428571    9.1314285714   13.6971428571
Ar   13.6971428571    9.1314285714   18.2628571429
Ar   13.6971428571    9.1314285714   22.8285714286
Ar   13.6971428571    9.1314285714   27.3942857143
Ar   13.6971428571    9.1314285714   31.9600000000
Ar   13.6971428571   13.6971428571    0.0000000000
Ar   13.6971428571   13.6971428571    4.5657142857
Ar   13.6971428571   13.6971428571    9.1314285714
Ar   13.6971428571   13.6971428571   13.6971428571
Ar   13.6971428571   13.6971428571   18.2628571429
Ar   13.6971428571   13.6971428571   22.8285714286
Ar   13.6971428571   13.6971428571   27.3942857143
Ar   13.6971428571   13.6971428571   31.9600000000
Ar   13.6971428571   18.2628571429    0.0000000000
Ar   13.6971428571   18.2628571429    4.5657142857
Ar   13.6971428571   18.2628571429    9.1314285714
Ar   13.6971428571   18.2628571429   13.6971428571
Ar   13.6971428571   18.2628571429   18.2628571429
Ar   13.6971428571   18.2628571429   22.8285714286
Ar   13.6971428571   18.2628571429   27.3942857143
Ar   13.6971428571   18.2628571429   31.9600000000
Ar   13.6971428571   22.8285714286    0.0000000000
Ar   13.6971428571   22.8285714286    4.5657142857
Ar   13.6971428571   22.8285714286    9.1314285714
Ar   13.6971428571   22.8285714286   13.6971428571
Ar   13.6971428571   22.8285714286   18.2628571429
Ar   13.6971428571   22.8285714286   22.8285714286
Ar   13.6971428571   22.8285714286   27.3942857143
Ar   13.6971428571   22.8285714286   31.9600000000
Ar   13.6971428571   27.3942857143    0.0000000000
Ar   13.6971428571   27.3942857143    4.5657142857
Ar   13.6971428571   27.3942857143    9.1314285714
Ar   13.6971428571   27.3942857143   13.6971428571
Ar   13.6971428571   27.3942857143   18.2628571429
Ar   13.6971428571   27.3942857143   22.8285714286
Ar   13.6971428571   27.3942857143   27.3942857143
Ar   13.6971428571   27.3942857143   31.9600000000
Ar   13.6971428571   31.9600000000    0.0000000000
Ar   13.6971428571   31.9600000000    4.5657142857
Ar   13.6971428571   31.9600000000    9.1314285714
Ar   13.6971428571   31.9600000000   13.6971428571
Ar   13.6971428571   31.9600000000   18.2628571429
Ar   13.6971428571   31.9600000000   22.8285714286
Ar   13.6971428571   31.9600000000   27.3942857143
Ar   13.6971428571   31.9600000000   31.9600000000
Ar   18.2628571429    0.0000000000    0.0000000000
Ar   18.2628571429    0.0000000000    4.5657142857
Ar   18.2628571429    0.0000000000    9.1314285714
Ar   18.2628571429    0.0000000000   13.6971428571
Ar   18.2628571429    0.0000000000   18.2628571429
Ar   18.2628571429    0.0000000000   22.8285714286
Ar   18.2628571429    0.0000000000   27.3942857143
Ar   18.2628571429    0.0000000000   31.9600000000
Ar   18.2628571429    4.5657142857    0.0000000000
Ar   18.2628571429    4.5657142857    4.5657142857
Ar   18.2628571429    4.5657142857    9.1314285714
Ar   18.2628571429    4.5657142857   13.6971428571
Ar   18.2628571429    4.5657142857   18.2628571429
Ar   18.2628571429    4.5657142857   22.8285714286
Ar   18.2628571429    4.5657142857   27.3942857143
Ar   18.2628571429    4.5657142857   31.9600000000
Ar   18.2628571429    9.1314285714    0.0000000000
Ar   18.2628571429    9.1314285714    4.5657142857
Ar   18.2628571429    9.1314285714    9.1314285714
Ar   18.2628571429    9.1314285714   13.6971428571
Ar   18.2628571429    9.1314285714   18.2628571429
Ar   18.2628571429    9.1314285714   22.8285714286
Ar   18.2628571429    9.1314285714   27.3942857143
Ar   18.2628571429    9.1314285714   31.9600000000
Ar   18.2628571429   13.6971428571    0.0000000000
Ar   18.2628571429   13.6971428571    4.5657142857
Ar   18.2628571429   13.6971428571    9.1314285714
Ar   18.2628571429   13.6971428571   13.6971428571
Ar   18.2628571429   13.6971428571   18.2628571429
Ar   18.2628571429   13.6971428571   22.8285714286
Ar   18.2628571429   13.6971428571   27.3942857143
Ar   18.2628571429   13.6971428571   31.9600000000
Ar   18.2628571429   18.2628571429    0.0000000000
Ar   18.2628571429   18.2628571429    4.5657142857
Ar   18.2628571429   18.2628571429    9.1314285714
Ar   18.2628571429   18.2628571429   13.6971428571
Ar   18.2628571429   18.2628571429   18.2628571429
Ar   18.2628571429   18.2628571429   22.8285714286
Ar   18.2628571429   18.2628571429   27.3942857143
Ar   18.2628571429   18.2628571429   31.9600000000
Ar   18.2628571429   22.8285714286    0.0000000000
Ar   18.2628571429   22.8285714286    4.5657142857
Ar   18.2628571429   22.8285714286    9.1314285714
Ar   18.2628571429   22.8285714286   13.6971428571
Ar   18.2628571429   22.8285714286   18.2628571429
Ar   18.2628571429   22.8285714286   22.8285714286
Ar   18.2628571429   22.8285714286   27.3942857143
Ar   18.2628571429   22.8285714286   31.9600000000
Ar   18.2628571429   27.3942857143    0.0000000000
Ar   18.2628571429   27.3942857143    4.5657142857
Ar   18.2628571429   27.3942857143    9.1314285714
Ar   18.2628571429   27.3942857143   13.6971428571
Ar   18.2628571429   27.3942857143   18.2628571429
Ar   18.2628571429   27.3942857143   22.8285714286
Ar   18.2628571429   27.3942857143   27.3942857143
Ar   18.2628571429   27.3942857143   31.9600000000
Ar   18.2628571429   31.9600000000    0.0000000000
Ar   18.2628571429   31.9600000000    4.5657142857
Ar   18.2628571429   31.9600000000    9.1314285714
Ar   18.2628571429   31.9600000000   13.6971428571
Ar   18.2628571429   31.9600000000   18.2628571429
Ar   18.2628571429   31.9600000000   22.8285714286
Ar   18.2628571429   31.9600000000   27.3942857143
Ar   18.2628571429   31.9600000000   31.9600000000
Ar   22.8285714286    0.0000000000    0.0000000000
Ar   22.8285714286    0.0000000000    4.5657142857
Ar   22.8285714286    0.0000000000    9.1314285714
Ar   22.8285714286    0.0000000000   13.6971428571
Ar   22.8285714286    0.0000000000   18.2628571429
Ar   22.8285714286    0.0000000000   22.8285714286
Ar   22.8285714286    0.0000000000   27.3942857143
Ar   22.8285714286    0.0000000000   31.9600000000
Ar   22.8285714286    4.5657142857    0.0000000000
Ar   22.8285714286    4.5657142857    4.5657142857
Ar   22.8285714286    4.5657142857    9.1314285714
Ar   22.8285714286    4.5657142857   13.6971428571
Ar   22.8285714286    4.5657142857   18.2628571429
Ar   22.8285714286    4.5657142857   22.8285714286
Ar   22.8285714286    4.5657142857   27.3942857143
Ar   22.8285714286    4.5657142857   31.9600000000
Ar   22.8285714286    9.1314285714    0.0000000000
Ar   22.8285714286    9.1314285714    4.5657142857
Ar   22.8285714286    9.1314285714    9.1314285714
Ar   22.8285714286    9.1314285714   13.6971428571
Ar   22.8285714286    9.1314285714   18.2628571429
Ar   22.8285714286    9.1314285714   22.8285714286
Ar   22.8285714286    9.1314285714   27.3942857143
Ar   22.8285714286    9.1314285714   31.9600000000
Ar   22.8285714286   13.6971428571    0.0000000000
Ar   22.8285714286   13.6971428571    4.5657142857
Ar   22.8285714286   13.6971428571    9.1314285714
Ar   22.8285714286   13.6971428571   13.6971428571
Ar   22.8285714286   13.6971428571   18.2628571429
Ar   22.8285714286   13.6971428571   22.8285714286
Ar   22.8285714286   13.6971428571   27.3942857143
Ar   22.8285714286   13.6971428571   31.9600000000
Ar   22.8285714286   18.2628571429    0.0000000000
Ar   22.8285714286   18.2628571429    4.5657142857
Ar   22.8285714286   18.2628571429    9.1314285714
Ar   22.8285714286   18.2628571429   13.6971428571
Ar   22.8285714286   18.2628571429   18.2628571429
Ar   22.8285714286   18.2628571429   22.8285714286
Ar   22.8285714286   18.2628571429   27.3942857143
Ar   22.8285714286   18.2628571429   31.9600000000
Ar   22.8285714286   22.8285714286    0.0000000000
Ar   22.8285714286   22.8285714286    4.5657142857
Ar   22.8285714286   22.8285714286    9.1314285714
Ar   22.8285714286   22.8285714286   13.6971428571
Ar   22.8285714286   22.8285714286   18.2628571429
Ar   22.8285714286   22.8285714286   22.8285714286
Ar   22.8285714286   22.8285714286   27.3942857143
Ar   22.8285714286   22.8285714286   31.9600000000
Ar   22.8285714286   27.3942857143    0.0000000000
Ar   22.8285714286   27.3942857143    4.5657142857
Ar   22.8285714286   27.3942857143    9.1314285714
Ar   22.8285714286   27.3942857143   13.6971428571
Ar   22.8285714286   27.3942857143   18.2628571429
Ar   22.8285714286   27.3942857143   22.8285714286
Ar   22.8285714286   27.3942857143   27.3942857143
Ar   22.8285714286   27.3942857143   31.9600000000
Ar   22.8285714286   31.9600000000    0.0000000000
Ar   22.8285714286   31.9600000000    4.5657142857
Ar   22.8285714286   31.9600000000    9.1314285714
Ar   22.8285714286   31.9600000000   13.6971428571
Ar   22.8285714286   31.9600000000   18.2628571429
Ar   22.8285714286   31.9600000000   22.8285714286
Ar   22.8285714286   31.9600000000   27.3942857143
Ar   22.8285714286   31.9600000000   31.9600000000
Ar   27.3942857143    0.0000000000    0.0000000000
Ar   27.3942857143    0.0000000000    4.5657142857
Ar   27.3942857143    0.0000000000    9.1314285714
Ar   27.3942857143    0.0000000000   13.6971428571
Ar   27.3942857143    0.0000000000   18.2628571429
Ar   27.3942857143    0.0000000000   22.8285714286
Ar   27.3942857143    0.0000000000   27.3942857143
Ar   27.3942857143    0.0000000000   31.9600000000
Ar   27.3942857143    4.5657142857    0.0000000000
Ar   27.3942857143    4.5657142857    4.5657142857
Ar   27.3942857143    4.5657142857    9.1314285714
Ar   27.3942857143    4.5657142857   13.6971428571
Ar   27.3942857143    4.5657142857   18.2628571429
Ar   27.3942857143    4.5657142857   22.8285714286
Ar   27.3942857143    4.5657142857   27.3942857143
Ar   27.3942857143    4.5657142857   31.9600000000
Ar   27.3942857143    9.1314285714    0.0000000000
Ar   27.3942857143    9.1314285714    4.5657142857
Ar   27.3942857143    9.1314285714    9.1314285714
Ar   27.3942857143    9.1314285714   13.6971428571
Ar   27.3942857143    9.1314285714   18.2628571429
Ar   27.3942857143    9.1314285714   22.8285714286
Ar   27.3942857143    9.1314285714   27.3942857143
Ar   27.3942857143    9.1314285714   31.9600000000
Ar   27.3942857143   13.6971428571    0.0000000000
Ar   27.3942857143   13.6971428571    4.5657142857
Ar   27.3942857143   13.6971428571    9.1314285714
Ar   27.3942857143   13.6971428571   13.6971428571
Ar   27.3942857143   13.6971428571   18.2628571429
Ar   27.3942857143   13.6971428571   22.8285714286
Ar   27.3942857143   13.6971428571   27.3942857143
Ar   27.3942857143   13.6971428571   31.9600000000
Ar   27.3942857143   18.2628571429    0.0000000000
Ar   27.3942857143   18.2628571429    4.5657142857
Ar   27.3942857143   18.2628571429    9.1314285714
Ar   27.3942857143   18.2628571429   13.6971428571
Ar   27.3942857143   18.2628571429   18.2628571429
Ar   27.3942857143   18.2628571429   22.8285714286
Ar   27.3942857143   18.2628571429   27.3942857143
Ar   27.3942857143   18.2628571429   31.9600000000
Ar   27.3942857143   22.8285714286    0.0000000000
Ar   27.3942857143   22.8285714286    4.5657142857
Ar   27.3942857143   22.8285714286    9.1314285714
Ar   27.3942857143   22.8285714286   13.6971428571
Ar   27.3942857143   22.8285714286   18.2628571429
Ar   27.3942857143   22.8285714286   22.8285714286
Ar   27.3942857143   22.8285714286   27.3942857143
Ar   27.3942857143   22.8285714286   31.9600000000
Ar   27.3942857143   27.3942857143    0.0000000000
Ar   27.3942857143   27.3942857143    4.5657142857
Ar   27.3942857143   27.3942857143    9.1314285714
Ar   27.3942857143   27.3942857143   13.6971428571
Ar   27.3942857143   27.3942857143   18.2628571429
Ar   27.3942857143   27.3942857143   22.8285714286
Ar   27.3942857143   27.3942857143   27.3942857143
Ar   27.3942857143   27.3942857143   31.9600000000
Ar   27.3942857143   31.9600000000    0.0000000000
Ar   27.3942857143   31.9600000000    4.5657142857
Ar   27.3942857143   31.9600000000    9.1314285714
Ar   27.3942857143   31.9600000000   13.6971428571
Ar   27.3942857143   31.9600000000   18.2628571429
Ar   27.3942857143   31.9600000000   22.8285714286
Ar   27.3942857143   31.9600000000   27.3942857143
Ar   27.3942857143   31.9600000000   31.9600000000
Ar   31.9600000000    0.0000000000    0.0000000000
Ar   31.9600000000    0.0000000000    4.5657142857
Ar   31.9600000000    0.0000000000    9.1314285714
Ar   31.9600000000    0.0000000000   13.6971428571
Ar   31.9600000000    0.0000000000   18.2628571429
Ar   31.9600000000    0.0000000000   22.8285714286
Ar   31.9600000000    0.0000000000   27.3942857143
Ar   31.9600000000    0.0000000000   31.9600000000
Ar   31.9600000000    4.5657142857    0.0000000000
Ar   31.9600000000    4.5657142857    4.5657142857
Ar   31.9600000000    4.5657142857    9.1314285714
Ar   31.9600000000    4.5657142857   13.6971428571
Ar   31.9600000000    4.5657142857   18.2628571429
Ar   31.9600000000    4.5657142857   22.8285714286
Ar   31.9600000000    4.5657142857   27.3942857143
Ar   31.9600000000    4.5657142857   31.9600000000
Ar   31.9600000000    9.1314285714    0.0000000000
Ar   31.9600000000    9.1314285714    4.5657142857
Ar   31.9600000000    9.1314285714    9.1314285714
Ar   31.9600000000    9.1314285714   13.6971428571
Ar   31.9600000000    9.1314285714   18.2628571429
Ar   31.9600000000    9.1314285714   22.8285714286
Ar   31.9600000000    9.1314285714   27.3942857143
Ar   31.9600000000    9.1314285714   31.9600000000
Ar   31.9600000000   13.6971428571    0.0000000000
Ar   31.9600000000   13.6971428571    4.5657142857
Ar   31.9600000000   13.6971428571    9.1314285714
Ar   31.9600000000   13.6971428571   13.6971428571
Ar   31.9600000000   13.6971428571   18.2628571429
Ar   31.9600000000   13.6971428571   22.8285714286
Ar   31.9600000000   13.6971428571   27.3942857143
Ar   31.9600000000   13.6971428571   31.9600000000
Ar   31.9600000000   18.2628571429    0.0000000000
Ar   31.9600000000   18.2628571429    4.5657142857
Ar   31.9600000000   18.2628571429    9.1314285714
Ar   31.9600000000   18.2628571429   13.6971428571
Ar   31.9600000000   18.2628571429   18.2628571429
Ar   31.9600000000   18.2628571429   22.8285714286
Ar   31.9600000000   18.2628571429   27.3942857143
Ar   31.9600000000   18.2628571429   31.9600000000
Ar   31.9600000000   22.8285714286    0.0000000000
Ar   31.9600000000   22.8285714286    4.5657142857
Ar   31.9600000000   22.8285714286    9.1314285714
Ar   31.9600000000   22.8285714286   13.6971428571
Ar   31.9600000000   22.8285714286   18.2628571429
Ar   31.9600000000   22.8285714286   22.8285714286
Ar   31.9600000000   22.8285714286   27.3942857143
Ar   31.9600000000   22.8285714286   31.9600000000
Ar   31.9600000000   27.3942857143    0.0000000000
Ar   31.9600000000   27.3942857143    4.5657142857
Ar   31.9600000000   27.3942857143    9.1314285714
Ar   31.9600000000   27.3942857143   13.6971428571
Ar   31.9600000000   27.3942857143   18.2628571429
Ar   31.9600000000   27.3942857143   22.8285714286
Ar   31.9600000000   27.3942857143   27.3942857143
Ar   31.9600000000   27.3942857143   31.9600000000
Ar   31.9600000000   31.9600000000    0.0000000000
Ar   31.9600000000   31.9600000000    4.5657142857
Ar   31.9600000000   31.9600000000    9.1314285714
Ar   31.9600000000   31.9600000000   13.6971428571
Ar   31.9600000000   31.9600000000   18.2628571429
Ar   31.9600000000   31.9600000000   22.8285714286
Ar   31.9600000000   31.9600000000   27.3942857143
Ar   31.9600000000   31.9600000000   31.9600000000